Export MATPOWER/export_matpower.m
function mpc = export_matpower

% Este é um arquivo exportado do programa DXFlow gerado a partir do últimos dados de entrada abertos

%% MATPOWER Case Format : Version 2
mpc.version = '2';

%% system MVA base
mpc.baseMVA = 1;

mpc.bus = [1  3  0.000000000  0.000000000  0  0.000000000  0  1.00   0.00   23.00  1      1.5       0.5;
2  1  0.000000000  0.000000000  0  0.000000000  0  1.00   0.00   23.00  1      1.5       0.5;
3  1  0.000000000  0.000000000  0  0.000000000  0  1.00   0.00   23.00  1      1.5       0.5;
4  1  0.000000000  0.000000000  0  0.000000000  0  1.00   0.00   23.00  1      1.5       0.5;
5  1  0.000000000  0.000000000  0  0.000000000  0  1.00   0.00   23.00  1      1.5       0.5;
6  1  0.000000000  0.000000000  0  0.000000000  0  1.00   0.00   23.00  1      1.5       0.5;
7  1  0.000000000  0.000000000  0  0.000000000  0  1.00   0.00   23.00  1      1.5       0.5;
8  1  0.000000000  0.000000000  0  0.000000000  0  1.00   0.00   23.00  1      1.5       0.5;
9  1  0.001858500  0.000690000  0  0.000000000  0  1.00   0.00   23.00  1      1.5       0.5;
10  1  0.000000000  0.000000000  0  0.000000000  0  1.00   0.00   23.00  1      1.5       0.5;
11  1  0.000000000  0.000000000  0  0.000000000  0  1.00   0.00   23.00  1      1.5       0.5;
12  1  0.001380000  0.000690750  0  0.000000000  0  1.00   0.00   23.00  1      1.5       0.5;
13  1  0.000000000  0.000000000  0  0.000000000  0  1.00   0.00   23.00  1      1.5       0.5;
14  1  0.000000000  0.000000000  0  0.000000000  0  1.00   0.00   23.00  1      1.5       0.5;
15  1  0.000781500  0.000253500  0  0.000000000  0  1.00   0.00   23.00  1      1.5       0.5;
16  1  0.000000000  0.000000000  0  0.000000000  0  1.00   0.00   23.00  1      1.5       0.5;
17  1  0.001501500  0.000447750  0  0.000000000  0  1.00   0.00   23.00  1      1.5       0.5;
18  1  0.000000000  0.000000000  0  0.000000000  0  1.00   0.00   23.00  1      1.5       0.5;
19  1  0.000632250  0.000162000  0  0.000000000  0  1.00   0.00   23.00  1      1.5       0.5;
20  1  0.000000000  0.000000000  0  0.000000000  0  1.00   0.00   23.00  1      1.5       0.5;
21  1  0.000000000  0.000000000  0  0.000000000  0  1.00   0.00   23.00  1      1.5       0.5;
22  1  0.000000000  0.000000000  0  0.000000000  0  1.00   0.00   23.00  1      1.5       0.5;
23  1  0.000000000  0.000000000  0  0.000000000  0  1.00   0.00   23.00  1      1.5       0.5;
24  1  0.002985000  0.000678750  0  0.000000000  0  1.00   0.00   23.00  1      1.5       0.5;
25  1  0.000000000  0.000000000  0  0.000000000  0  1.00   0.00   23.00  1      1.5       0.5;
26  1  0.000000000  0.000000000  0  0.000000000  0  1.00   0.00   23.00  1      1.5       0.5;
27  1  0.001522500  0.000787500  0  0.000000000  0  1.00   0.00   23.00  1      1.5       0.5;
28  1  0.001057500  0.000473250  0  0.000000000  0  1.00   0.00   23.00  1      1.5       0.5;
29  1  0.000000000  0.000000000  0  0.000000000  0  1.00   0.00   23.00  1      1.5       0.5;
30  1  0.000852750  0.000068250  0  0.000000000  0  1.00   0.00   23.00  1      1.5       0.5;
31  1  0.000000000  0.000000000  0  0.000000000  0  1.00   0.00   23.00  1      1.5       0.5;
32  1  0.002076750  0.000881250  0  0.000000000  0  1.00   0.00   23.00  1      1.5       0.5;
33  1  0.001170750  0.000550500  0  0.000000000  0  1.00   0.00   23.00  1      1.5       0.5;
34  1  0.000000000  0.000000000  0  0.000000000  0  1.00   0.00   23.00  1      1.5       0.5;
35  1  0.001594500  0.000508500  0  0.000000000  0  1.00   0.00   23.00  1      1.5       0.5;
36  1  0.001919250  0.000477750  0  0.000000000  0  1.00   0.00   23.00  1      1.5       0.5;
37  1  0.007714500  0.003099000  0  0.000000000  0  1.00   0.00   23.00  1      1.5       0.5;
38  1  0.002909250  0.000648750  0  0.000000000  0  1.00   0.00   23.00  1      1.5       0.5;
39  1  0.000000000  0.000000000  0  0.000000000  0  1.00   0.00   23.00  1      1.5       0.5;
40  1  0.001572000  0.000495750  0  0.000000000  0  1.00   0.00   23.00  1      1.5       0.5;
41  1  0.001026750  0.000453000  0  0.000000000  0  1.00   0.00   23.00  1      1.5       0.5;
42  1  0.000874500  0.000311250  0  0.000000000  0  1.00   0.00   23.00  1      1.5       0.5;
43  1  0.008565000  0.002785500  0  0.000000000  0  1.00   0.00   23.00  1      1.5       0.5;
44  1  0.004906500  0.002346750  0  0.000000000  0  1.00   0.00   23.00  1      1.5       0.5;
45  1  0.000000000  0.000000000  0  0.000000000  0  1.00   0.00   23.00  1      1.5       0.5;
46  1  0.000000000  0.000000000  0  0.000000000  0  1.00   0.00   23.00  1      1.5       0.5;
47  1  0.000201000  0.000103500  0  0.000000000  0  1.00   0.00   23.00  1      1.5       0.5;
48  1  0.000420000  0.000017250  0  0.000000000  0  1.00   0.00   23.00  1      1.5       0.5;
49  1  0.000000000  0.000000000  0  0.000000000  0  1.00   0.00   23.00  1      1.5       0.5;
50  1  0.000000000  0.000000000  0  0.000000000  0  1.00   0.00   23.00  1      1.5       0.5;
51  1  0.002049750  0.000975750  0  0.000000000  0  1.00   0.00   23.00  1      1.5       0.5;
52  1  0.000746250  0.000232500  0  0.000000000  0  1.00   0.00   23.00  1      1.5       0.5;
53  1  0.001261500  0.000297000  0  0.000000000  0  1.00   0.00   23.00  1      1.5       0.5;
54  1  0.000000000  0.000000000  0  0.000000000  0  1.00   0.00   23.00  1      1.5       0.5;
55  1  0.002332500  0.000736500  0  0.000000000  0  1.00   0.00   23.00  1      1.5       0.5;
56  1  0.003651750  0.001428000  0  0.000000000  0  1.00   0.00   23.00  1      1.5       0.5;
57  1  0.002441250  0.000863250  0  0.000000000  0  1.00   0.00   23.00  1      1.5       0.5;
58  1  0.000000000  0.000000000  0  0.000000000  0  1.00   0.00   23.00  1      1.5       0.5;
59  1  0.004175250  0.000909750  0  0.000000000  0  1.00   0.00   23.00  1      1.5       0.5;
60  1  0.002695500  0.000760500  0  0.000000000  0  1.00   0.00   23.00  1      1.5       0.5;
61  1  0.000000000  0.000000000  0  0.000000000  0  1.00   0.00   23.00  1      1.5       0.5;
62  1  0.000000000  0.000000000  0  0.000000000  0  1.00   0.00   23.00  1      1.5       0.5;
63  1  0.001539750  0.000798750  0  0.000000000  0  1.00   0.00   23.00  1      1.5       0.5;
64  1  0.000000000  0.000000000  0  0.000000000  0  1.00   0.00   23.00  1      1.5       0.5;
65  1  0.001377000  0.000689250  0  0.000000000  0  1.00   0.00   23.00  1      1.5       0.5;
66  1  0.000942000  0.000352500  0  0.000000000  0  1.00   0.00   23.00  1      1.5       0.5;
67  1  0.003309000  0.000832500  0  0.000000000  0  1.00   0.00   23.00  1      1.5       0.5;
68  1  0.000000000  0.000000000  0  0.000000000  0  1.00   0.00   23.00  1      1.5       0.5;
69  1  0.000000000  0.000000000  0  0.000000000  0  1.00   0.00   23.00  1      1.5       0.5;
70  1  0.000762000  0.000242250  0  0.000000000  0  1.00   0.00   23.00  1      1.5       0.5;
71  1  0.000000000  0.000000000  0  0.000000000  0  1.00   0.00   23.00  1      1.5       0.5;
72  1  0.002111250  0.000576750  0  0.000000000  0  1.00   0.00   23.00  1      1.5       0.5;
73  1  0.002432250  0.000850500  0  0.000000000  0  1.00   0.00   23.00  1      1.5       0.5;
74  1  0.005022000  0.000949500  0  0.000000000  0  1.00   0.00   23.00  1      1.5       0.5;
75  1  0.000000000  0.000000000  0  0.000000000  0  1.00   0.00   23.00  1      1.5       0.5;
76  1  0.000000000  0.000000000  0  0.000000000  0  1.00   0.00   23.00  1      1.5       0.5;
77  1  0.001611000  0.000537750  0  0.000000000  0  1.00   0.00   23.00  1      1.5       0.5;
78  1  0.001534500  0.000509250  0  0.000000000  0  1.00   0.00   23.00  1      1.5       0.5;
79  1  0.006594750  0.003408000  0  0.000000000  0  1.00   0.00   23.00  1      1.5       0.5;
80  1  0.000000000  0.000000000  0  0.000000000  0  1.00   0.00   23.00  1      1.5       0.5;
81  1  0.000698250  0.000202500  0  0.000000000  0  1.00   0.00   23.00  1      1.5       0.5;
82  1  0.000000000  0.000000000  0  0.000000000  0  1.00   0.00   23.00  1      1.5       0.5;
83  1  0.000000000  0.000000000  0  0.000000000  0  1.00   0.00   23.00  1      1.5       0.5;
84  1  0.001181250  0.000255000  0  0.000000000  0  1.00   0.00   23.00  1      1.5       0.5;
85  1  0.000965250  0.000366750  0  0.000000000  0  1.00   0.00   23.00  1      1.5       0.5;
86  1  0.001134750  0.000525750  0  0.000000000  0  1.00   0.00   23.00  1      1.5       0.5;
87  1  0.000201000  0.000103500  0  0.000000000  0  1.00   0.00   23.00  1      1.5       0.5;
88  1  0.000000000  0.000000000  0  0.000000000  0  1.00   0.00   23.00  1      1.5       0.5;
89  1  0.000000000  0.000000000  0  0.000000000  0  1.00   0.00   23.00  1      1.5       0.5;
90  1  0.005058750  0.002337750  0  0.000000000  0  1.00   0.00   23.00  1      1.5       0.5;
91  1  0.001653000  0.000606750  0  0.000000000  0  1.00   0.00   23.00  1      1.5       0.5;
92  1  0.001278000  0.000327750  0  0.000000000  0  1.00   0.00   23.00  1      1.5       0.5;
93  1  0.000762000  0.000242250  0  0.000000000  0  1.00   0.00   23.00  1      1.5       0.5;
94  1  0.000612750  0.000150000  0  0.000000000  0  1.00   0.00   23.00  1      1.5       0.5;
95  1  0.000000000  0.000000000  0  0.000000000  0  1.00   0.00   23.00  1      1.5       0.5;
96  1  0.004321500  0.000831750  0  0.000000000  0  1.00   0.00   23.00  1      1.5       0.5;
97  1  0.001153500  0.000249750  0  0.000000000  0  1.00   0.00   23.00  1      1.5       0.5;
98  1  0.000000000  0.000000000  0  0.000000000  0  1.00   0.00   23.00  1      1.5       0.5;
99  1  0.000000000  0.000000000  0  0.000000000  0  1.00   0.00   23.00  1      1.5       0.5;
100  1  0.001893000  0.000243000  0  0.000000000  0  1.00   0.00   23.00  1      1.5       0.5;
101  1  0.000222000  0.000092250  0  0.000000000  0  1.00   0.00   23.00  1      1.5       0.5;
102  1  0.011201250  0.000880500  0  0.000000000  0  1.00   0.00   23.00  1      1.5       0.5;
103  1  0.039664500  0.007732500  0  0.000000000  0  1.00   0.00   23.00  1      1.5       0.5;
104  1  0.022861500  0.005091000  0  0.000000000  0  1.00   0.00   23.00  1      1.5       0.5;
105  1  0.010747500  0.001436250  0  0.000000000  0  1.00   0.00   23.00  1      1.5       0.5;
106  1  0.000000000  0.000000000  0  0.000000000  0  1.00   0.00   23.00  1      1.5       0.5;
107  1  0.000000000  0.000000000  0  0.000000000  0  1.00   0.00   23.00  1      1.5       0.5;
108  1  0.000000000  0.000000000  0  0.000000000  0  1.00   0.00   23.00  1      1.5       0.5;
109  1  0.000355500  0.000018000  0  0.000000000  0  1.00   0.00   23.00  1      1.5       0.5;
110  1  0.002052750  0.000863250  0  0.000000000  0  1.00   0.00   23.00  1      1.5       0.5;
111  1  0.002067750  0.000819000  0  0.000000000  0  1.00   0.00   23.00  1      1.5       0.5;
112  1  0.029688750  0.002922000  0  0.000000000  0  1.00   0.00   23.00  1      1.5       0.5;
113  1  0.000920250  0.000381000  0  0.000000000  0  1.00   0.00   23.00  1      1.5       0.5;
114  1  0.002175750  0.000935250  0  0.000000000  0  1.00   0.00   23.00  1      1.5       0.5;
115  1  0.000000000  0.000000000  0  0.000000000  0  1.00   0.00   23.00  1      1.5       0.5;
116  1  0.002499000  0.000625500  0  0.000000000  0  1.00   0.00   23.00  1      1.5       0.5;
117  1  0.001895250  0.000387000  0  0.000000000  0  1.00   0.00   23.00  1      1.5       0.5;
118  1  0.002156250  0.000606000  0  0.000000000  0  1.00   0.00   23.00  1      1.5       0.5;
119  1  0.001312500  0.000314250  0  0.000000000  0  1.00   0.00   23.00  1      1.5       0.5;
120  1  0.003212250  0.001094250  0  0.000000000  0  1.00   0.00   23.00  1      1.5       0.5;
121  1  0.002285250  0.000265500  0  0.000000000  0  1.00   0.00   23.00  1      1.5       0.5;
122  1  0.003652500  0.001152750  0  0.000000000  0  1.00   0.00   23.00  1      1.5       0.5;
123  1  0.001752750  0.000111000  0  0.000000000  0  1.00   0.00   23.00  1      1.5       0.5;
124  1  0.000261750  0.000070500  0  0.000000000  0  1.00   0.00   23.00  1      1.5       0.5;
125  1  0.000000000  0.000000000  0  0.000000000  0  1.00   0.00   23.00  1      1.5       0.5;
126  1  0.003363000  0.000891000  0  0.000000000  0  1.00   0.00   23.00  1      1.5       0.5;
127  1  0.055843500  0.011343000  0  0.000000000  0  1.00   0.00   23.00  1      1.5       0.5;
128  1  0.005520000  0.000900000  0  0.000000000  0  1.00   0.00   23.00  1      1.5       0.5;
129  1  0.000000000  0.000000000  0  0.000000000  0  1.00   0.00   23.00  1      1.5       0.5;
130  1  0.001775250  0.000639000  0  0.000000000  0  1.00   0.00   23.00  1      1.5       0.5;
131  1  0.000576750  0.000104250  0  0.000000000  0  1.00   0.00   23.00  1      1.5       0.5;
132  1  0.000000000  0.000000000  0  0.000000000  0  1.00   0.00   23.00  1      1.5       0.5;
133  1  0.000000000  0.000000000  0  0.000000000  0  1.00   0.00   23.00  1      1.5       0.5;
134  1  0.002620500  0.000476250  0  0.000000000  0  1.00   0.00   23.00  1      1.5       0.5;
135  1  0.001714500  0.000654750  0  0.000000000  0  1.00   0.00   23.00  1      1.5       0.5;
136  1  0.000201000  0.000103500  0  0.000000000  0  1.00   0.00   23.00  1      1.5       0.5;
137  1  0.017641500  0.002513250  0  0.000000000  0  1.00   0.00   23.00  1      1.5       0.5;
138  1  0.007533000  0.000565500  0  0.000000000  0  1.00   0.00   23.00  1      1.5       0.5;
139  1  0.008649750  0.001131000  0  0.000000000  0  1.00   0.00   23.00  1      1.5       0.5;
140  1  0.001624500  0.000265500  0  0.000000000  0  1.00   0.00   23.00  1      1.5       0.5;
141  1  0.005172000  0.001149750  0  0.000000000  0  1.00   0.00   23.00  1      1.5       0.5;
142  1  0.002164500  0.000878250  0  0.000000000  0  1.00   0.00   23.00  1      1.5       0.5;
143  1  0.001818000  0.000000000  0  0.000000000  0  1.00   0.00   23.00  1      1.5       0.5;
144  1  0.000000000  0.000000000  0  0.000000000  0  1.00   0.00   23.00  1      1.5       0.5;
145  1  0.000000000  0.000000000  0  0.000000000  0  1.00   0.00   23.00  1      1.5       0.5;
146  1  0.001551000  0.000806250  0  0.000000000  0  1.00   0.00   23.00  1      1.5       0.5;
147  1  0.000000000  0.000000000  0  0.000000000  0  1.00   0.00   23.00  1      1.5       0.5;
148  1  0.000813750  0.000194250  0  0.000000000  0  1.00   0.00   23.00  1      1.5       0.5;
149  1  0.019485750  0.000674250  0  0.000000000  0  1.00   0.00   23.00  1      1.5       0.5;
150  1  0.000000000  0.000000000  0  0.000000000  0  1.00   0.00   23.00  1      1.5       0.5;
151  1  0.002081250  0.000630750  0  0.000000000  0  1.00   0.00   23.00  1      1.5       0.5;
152  1  0.001032750  0.000073500  0  0.000000000  0  1.00   0.00   23.00  1      1.5       0.5;
153  1  0.000000000  0.000000000  0  0.000000000  0  1.00   0.00   23.00  1      1.5       0.5;
154  1  0.004052250  0.001586250  0  0.000000000  0  1.00   0.00   23.00  1      1.5       0.5;
155  1  0.000821250  0.000024750  0  0.000000000  0  1.00   0.00   23.00  1      1.5       0.5;
156  1  0.000000000  0.000000000  0  0.000000000  0  1.00   0.00   23.00  1      1.5       0.5;
157  1  0.000000000  0.000000000  0  0.000000000  0  1.00   0.00   23.00  1      1.5       0.5;
158  1  0.001564500  0.000816000  0  0.000000000  0  1.00   0.00   23.00  1      1.5       0.5;
159  1  0.005304000  0.002441250  0  0.000000000  0  1.00   0.00   23.00  1      1.5       0.5;
160  1  0.001128000  0.000194250  0  0.000000000  0  1.00   0.00   23.00  1      1.5       0.5;
161  1  0.003296250  0.001463250  0  0.000000000  0  1.00   0.00   23.00  1      1.5       0.5;
162  1  0.001251750  0.000048000  0  0.000000000  0  1.00   0.00   23.00  1      1.5       0.5;
163  1  0.000000000  0.000000000  0  0.000000000  0  1.00   0.00   23.00  1      1.5       0.5;
164  1  0.000993750  0.000157500  0  0.000000000  0  1.00   0.00   23.00  1      1.5       0.5;
165  1  0.000000000  0.000000000  0  0.000000000  0  1.00   0.00   23.00  1      1.5       0.5;
166  1  0.005892750  0.003219750  0  0.000000000  0  1.00   0.00   23.00  1      1.5       0.5;
167  1  0.002112750  0.000121500  0  0.000000000  0  1.00   0.00   23.00  1      1.5       0.5;
168  1  0.000000000  0.000000000  0  0.000000000  0  1.00   0.00   23.00  1      1.5       0.5;
169  1  0.001683750  0.000559500  0  0.000000000  0  1.00   0.00   23.00  1      1.5       0.5;
170  1  0.003075000  0.001574250  0  0.000000000  0  1.00   0.00   23.00  1      1.5       0.5;
171  1  0.002691750  0.000725250  0  0.000000000  0  1.00   0.00   23.00  1      1.5       0.5;
172  1  0.000768000  0.000245250  0  0.000000000  0  1.00   0.00   23.00  1      1.5       0.5;
173  1  0.002582250  0.000665250  0  0.000000000  0  1.00   0.00   23.00  1      1.5       0.5;
174  1  0.000000000  0.000000000  0  0.000000000  0  1.00   0.00   23.00  1      1.5       0.5;
175  1  0.000000000  0.000000000  0  0.000000000  0  1.00   0.00   23.00  1      1.5       0.5;
176  1  0.000000000  0.000000000  0  0.000000000  0  1.00   0.00   23.00  1      1.5       0.5;
177  1  0.001158000  0.000242250  0  0.000000000  0  1.00   0.00   23.00  1      1.5       0.5;
178  1  0.004947750  0.002667750  0  0.000000000  0  1.00   0.00   23.00  1      1.5       0.5;
179  1  0.001921500  0.000772500  0  0.000000000  0  1.00   0.00   23.00  1      1.5       0.5;
180  1  0.002142750  0.000678000  0  0.000000000  0  1.00   0.00   23.00  1      1.5       0.5;
181  1  0.001595250  0.000528000  0  0.000000000  0  1.00   0.00   23.00  1      1.5       0.5;
182  1  0.000943500  0.000396750  0  0.000000000  0  1.00   0.00   23.00  1      1.5       0.5;
183  1  0.000000000  0.000000000  0  0.000000000  0  1.00   0.00   23.00  1      1.5       0.5;
184  1  0.000000000  0.000000000  0  0.000000000  0  1.00   0.00   23.00  1      1.5       0.5;
185  1  0.000000000  0.000000000  0  0.000000000  0  1.00   0.00   23.00  1      1.5       0.5;
186  1  0.001934250  0.000736500  0  0.000000000  0  1.00   0.00   23.00  1      1.5       0.5;
187  1  0.000000000  0.000000000  0  0.000000000  0  1.00   0.00   23.00  1      1.5       0.5;
188  1  0.000000000  0.000000000  0  0.000000000  0  1.00   0.00   23.00  1      1.5       0.5;
189  1  0.000000000  0.000000000  0  0.000000000  0  1.00   0.00   23.00  1      1.5       0.5;
190  1  0.008742750  0.003382500  0  0.000000000  0  1.00   0.00   23.00  1      1.5       0.5;
191  1  0.003300000  0.001041000  0  0.000000000  0  1.00   0.00   23.00  1      1.5       0.5;
192  1  0.000000000  0.000000000  0  0.000000000  0  1.00   0.00   23.00  1      1.5       0.5;
193  1  0.001772250  0.000681750  0  0.000000000  0  1.00   0.00   23.00  1      1.5       0.5;
194  1  0.000000000  0.000000000  0  0.000000000  0  1.00   0.00   23.00  1      1.5       0.5;
195  1  0.000000000  0.000000000  0  0.000000000  0  1.00   0.00   23.00  1      1.5       0.5;
196  1  0.000000000  0.000000000  0  0.000000000  0  1.00   0.00   23.00  1      1.5       0.5;
197  1  0.000000000  0.000000000  0  0.000000000  0  1.00   0.00   23.00  1      1.5       0.5;
198  1  0.002700000  0.000981000  0  0.000000000  0  1.00   0.00   23.00  1      1.5       0.5;
199  1  0.005400000  0.002234250  0  0.000000000  0  1.00   0.00   23.00  1      1.5       0.5;
200  1  0.000000000  0.000000000  0  0.000000000  0  1.00   0.00   23.00  1      1.5       0.5;
201  1  0.001076250  0.000192000  0  0.000000000  0  1.00   0.00   23.00  1      1.5       0.5;
...

%% generator data
mpc.gen = [1  123240  0	9020  -9020  1  1000  1  184860  0  0  0  0  0  0  0  0  0  0  0  0];

%% branch data
mpc.branch = [1  2  0.008876967  0.009168973  0.000000050  500  500  500  1.000  0.000  1  -360  360;
2  3  0.001092431  0.001128366  0.000000006  500  500  500  1.000  0.000  1  -360  360;
4  5  0.000022370  0.000023106  0.000000000  500  500  500  1.000  0.000  1  -360  360;
5  6  0.000028066  0.000034441  0.000000000  500  500  500  1.000  0.000  1  -360  360;
6  7  0.000132740  0.000162889  0.000000001  500  500  500  1.000  0.000  1  -360  360;
8  9  0.000452009  0.000554676  0.000000003  500  500  500  1.000  0.000  1  -360  360;
9  10  0.000261693  0.000069352  0.000000000  500  500  500  1.000  0.000  1  -360  360;
10  11  0.000021510  0.000026395  0.000000000  500  500  500  1.000  0.000  1  -360  360;
11  12  0.001266608  0.000335666  0.000000001  500  500  500  1.000  0.000  1  -360  360;
4  13  0.000007183  0.000007420  0.000000000  500  500  500  1.000  0.000  1  -360  360;
7  14  0.000006200  0.000007609  0.000000000  500  500  500  1.000  0.000  1  -360  360;
10  15  0.001327625  0.000351836  0.000000001  500  500  500  1.000  0.000  1  -360  360;
11  16  0.000783190  0.000207554  0.000000001  500  500  500  1.000  0.000  1  -360  360;
16  17  0.001990308  0.000527455  0.000000002  500  500  500  1.000  0.000  1  -360  360;
17  18  0.001185073  0.000314058  0.000000001  500  500  500  1.000  0.000  1  -360  360;
18  19  0.001164788  0.000308682  0.000000001  500  500  500  1.000  0.000  1  -360  360;
19  20  0.000612246  0.000162252  0.000000001  500  500  500  1.000  0.000  1  -360  360;
20  21  0.001252938  0.000332043  0.000000001  500  500  500  1.000  0.000  1  -360  360;
21  22  0.000166310  0.000044074  0.000000000  500  500  500  1.000  0.000  1  -360  360;
22  23  0.001165005  0.000308740  0.000000001  500  500  500  1.000  0.000  1  -360  360;
23  24  0.001769218  0.000468863  0.000000002  500  500  500  1.000  0.000  1  -360  360;
16  25  0.000034894  0.000042819  0.000000000  500  500  500  1.000  0.000  1  -360  360;
25  26  0.000074986  0.000092018  0.000000000  500  500  500  1.000  0.000  1  -360  360;
26  27  0.000490836  0.000130077  0.000000001  500  500  500  1.000  0.000  1  -360  360;
25  28  0.000722865  0.000191568  0.000000001  500  500  500  1.000  0.000  1  -360  360;
28  29  0.001794186  0.000475480  0.000000002  500  500  500  1.000  0.000  1  -360  360;
29  30  0.002033367  0.000538866  0.000000002  500  500  500  1.000  0.000  1  -360  360;
26  31  0.000176424  0.000216496  0.000000001  500  500  500  1.000  0.000  1  -360  360;
31  32  0.001690980  0.000448130  0.000000002  500  500  500  1.000  0.000  1  -360  360;
18  33  0.001074586  0.000284778  0.000000001  500  500  500  1.000  0.000  1  -360  360;
29  34  0.000378485  0.000100303  0.000000000  500  500  500  1.000  0.000  1  -360  360;
34  35  0.000230133  0.000060988  0.000000000  500  500  500  1.000  0.000  1  -360  360;
35  36  0.000828598  0.000219588  0.000000001  500  500  500  1.000  0.000  1  -360  360;
20  37  0.001480890  0.000392453  0.000000002  500  500  500  1.000  0.000  1  -360  360;
31  38  0.000198100  0.000243096  0.000000001  500  500  500  1.000  0.000  1  -360  360;
38  39  0.000060008  0.000073638  0.000000000  500  500  500  1.000  0.000  1  -360  360;
39  40  0.000139339  0.000170988  0.000000001  500  500  500  1.000  0.000  1  -360  360;
40  41  0.002241474  0.000594017  0.000000002  500  500  500  1.000  0.000  1  -360  360;
34  42  0.001438394  0.000381191  0.000000002  500  500  500  1.000  0.000  1  -360  360;
21  43  0.000459628  0.000121807  0.000000000  500  500  500  1.000  0.000  1  -360  360;
43  44  0.001521298  0.000403162  0.000000002  500  500  500  1.000  0.000  1  -360  360;
22  45  0.009981822  0.000712627  0.000000000  500  500  500  1.000  0.000  1  -360  360;
45  46  0.027304481  0.001949334  0.000000000  500  500  500  1.000  0.000  1  -360  360;
46  47  0.005098231  0.000363975  0.000000000  500  500  500  1.000  0.000  1  -360  360;
39  48  0.001087761  0.000288269  0.000000001  500  500  500  1.000  0.000  1  -360  360;
23  49  0.018165596  0.001296886  0.000000000  500  500  500  1.000  0.000  1  -360  360;
49  50  0.002000681  0.000530204  0.000000002  500  500  500  1.000  0.000  1  -360  360;
50  51  0.001287110  0.000341099  0.000000001  500  500  500  1.000  0.000  1  -360  360;
45  52  0.009774012  0.000697791  0.000000000  500  500  500  1.000  0.000  1  -360  360;
49  53  0.001265046  0.000090315  0.000000000  500  500  500  1.000  0.000  1  -360  360;
53  54  0.001962422  0.000140102  0.000000000  500  500  500  1.000  0.000  1  -360  360;
54  55  0.018328061  0.001308485  0.000000000  500  500  500  1.000  0.000  1  -360  360;
46  56  0.010693981  0.000763469  0.000000000  500  500  500  1.000  0.000  1  -360  360;
56  57  0.024269281  0.001732643  0.000000000  500  500  500  1.000  0.000  1  -360  360;
40  58  0.000221477  0.000271782  0.000000001  500  500  500  1.000  0.000  1  -360  360;
58  59  0.002332249  0.000618073  0.000000002  500  500  500  1.000  0.000  1  -360  360;
59  60  0.002092711  0.000554593  0.000000002  500  500  500  1.000  0.000  1  -360  360;
50  61  0.000814190  0.000215770  0.000000001  500  500  500  1.000  0.000  1  -360  360;
61  62  0.002955799  0.000783321  0.000000003  500  500  500  1.000  0.000  1  -360  360;
61  63  0.001824927  0.000483627  0.000000002  500  500  500  1.000  0.000  1  -360  360;
63  64  0.000630718  0.000167148  0.000000001  500  500  500  1.000  0.000  1  -360  360;
64  65  0.005004195  0.001326170  0.000000005  500  500  500  1.000  0.000  1  -360  360;
54  66  0.000735710  0.000194972  0.000000001  500  500  500  1.000  0.000  1  -360  360;
54  67  0.000454606  0.000120476  0.000000000  500  500  500  1.000  0.000  1  -360  360;
58  68  0.002281934  0.000604739  0.000000002  500  500  500  1.000  0.000  1  -360  360;
68  69  0.002755666  0.000730284  0.000000003  500  500  500  1.000  0.000  1  -360  360;
69  70  0.000659913  0.000174885  0.000000001  500  500  500  1.000  0.000  1  -360  360;
58  71  0.000223352  0.000274083  0.000000001  500  500  500  1.000  0.000  1  -360  360;
68  72  0.000786329  0.000208386  0.000000001  500  500  500  1.000  0.000  1  -360  360;
72  73  0.001856015  0.000491866  0.000000002  500  500  500  1.000  0.000  1  -360  360;
62  74  0.000696470  0.000184573  0.000000001  500  500  500  1.000  0.000  1  -360  360;
74  75  0.001372982  0.000363856  0.000000001  500  500  500  1.000  0.000  1  -360  360;
75  76  0.001178950  0.000312435  0.000000001  500  500  500  1.000  0.000  1  -360  360;
76  77  0.000361588  0.000095825  0.000000000  500  500  500  1.000  0.000  1  -360  360;
64  78  0.001881656  0.000498661  0.000000002  500  500  500  1.000  0.000  1  -360  360;
69  79  0.000495978  0.000131440  0.000000001  500  500  500  1.000  0.000  1  -360  360;
79  80  0.000448194  0.000118777  0.000000000  500  500  500  1.000  0.000  1  -360  360;
71  81  0.000490929  0.000602435  0.000000003  500  500  500  1.000  0.000  1  -360  360;
81  82  0.000866295  0.000229578  0.000000001  500  500  500  1.000  0.000  1  -360  360;
75  83  0.001495165  0.000396236  0.000000002  500  500  500  1.000  0.000  1  -360  360;
83  84  0.000995591  0.000263843  0.000000001  500  500  500  1.000  0.000  1  -360  360;
80  85  0.001039414  0.000275457  0.000000001  500  500  500  1.000  0.000  1  -360  360;
83  86  0.001099437  0.000291364  0.000000001  500  500  500  1.000  0.000  1  -360  360;
86  87  0.006293276  0.001667792  0.000000007  500  500  500  1.000  0.000  1  -360  360;
76  88  0.001889171  0.000500652  0.000000002  500  500  500  1.000  0.000  1  -360  360;
88  89  0.003187294  0.000844670  0.000000003  500  500  500  1.000  0.000  1  -360  360;
89  90  0.002599318  0.000688850  0.000000003  500  500  500  1.000  0.000  1  -360  360;
76  91  0.002782566  0.000737413  0.000000003  500  500  500  1.000  0.000  1  -360  360;
88  92  0.000611207  0.000161977  0.000000001  500  500  500  1.000  0.000  1  -360  360;
89  93  0.001162963  0.000308199  0.000000001  500  500  500  1.000  0.000  1  -360  360;
90  94  0.000264095  0.000069988  0.000000000  500  500  500  1.000  0.000  1  -360  360;
81  95  0.000111400  0.000136703  0.000000001  500  500  500  1.000  0.000  1  -360  360;
95  96  0.000203333  0.000053886  0.000000000  500  500  500  1.000  0.000  1  -360  360;
82  97  0.001642429  0.000435263  0.000000002  500  500  500  1.000  0.000  1  -360  360;
97  98  0.000650343  0.000172349  0.000000001  500  500  500  1.000  0.000  1  -360  360;
98  99  0.003071098  0.000813877  0.000000003  500  500  500  1.000  0.000  1  -360  360;
99  100  0.000962180  0.000254989  0.000000001  500  500  500  1.000  0.000  1  -360  360;
100  101  0.007320256  0.001939953  0.000000008  500  500  500  1.000  0.000  1  -360  360;
95  102  0.000076346  0.000093687  0.000000000  500  500  500  1.000  0.000  1  -360  360;
102  103  0.000068352  0.000083878  0.000000000  500  500  500  1.000  0.000  1  -360  360;
103  104  0.000024221  0.000014300  0.000000000  500  500  500  1.000  0.000  1  -360  360;
104  105  0.000602158  0.000159579  0.000000001  500  500  500  1.000  0.000  1  -360  360;
105  106  0.000150523  0.000039890  0.000000000  500  500  500  1.000  0.000  1  -360  360;
106  107  0.001113205  0.000295012  0.000000001  500  500  500  1.000  0.000  1  -360  360;
107  108  0.001529327  0.000405290  0.000000002  500  500  500  1.000  0.000  1  -360  360;
108  109  0.001579182  0.000418502  0.000000002  500  500  500  1.000  0.000  1  -360  360;
98  110  0.002599829  0.000688985  0.000000003  500  500  500  1.000  0.000  1  -360  360;
110  111  0.002248824  0.000595965  0.000000002  500  500  500  1.000  0.000  1  -360  360;
102  112  0.000016070  0.000019719  0.000000000  500  500  500  1.000  0.000  1  -360  360;
112  113  0.000087429  0.000023170  0.000000000  500  500  500  1.000  0.000  1  -360  360;
99  114  0.000902256  0.000239108  0.000000001  500  500  500  1.000  0.000  1  -360  360;
114  115  0.001810179  0.000479719  0.000000002  500  500  500  1.000  0.000  1  -360  360;
115  116  0.000229230  0.000060749  0.000000000  500  500  500  1.000  0.000  1  -360  360;
112  117  0.000187699  0.000049742  0.000000000  500  500  500  1.000  0.000  1  -360  360;
117  118  0.000352924  0.000093529  0.000000000  500  500  500  1.000  0.000  1  -360  360;
118  119  0.000415084  0.000110002  0.000000000  500  500  500  1.000  0.000  1  -360  360;
119  120  0.000098121  0.000026003  0.000000000  500  500  500  1.000  0.000  1  -360  360;
120  121  0.001697641  0.000449895  0.000000002  500  500  500  1.000  0.000  1  -360  360;
121  122  0.001295052  0.000343204  0.000000001  500  500  500  1.000  0.000  1  -360  360;
122  123  0.000512542  0.000135830  0.000000001  500  500  500  1.000  0.000  1  -360  360;
123  124  0.000151908  0.000040258  0.000000000  500  500  500  1.000  0.000  1  -360  360;
124  125  0.002841613  0.000753061  0.000000003  500  500  500  1.000  0.000  1  -360  360;
125  126  0.000433570  0.000114901  0.000000000  500  500  500  1.000  0.000  1  -360  360;
103  127  0.000023340  0.000028641  0.000000000  500  500  500  1.000  0.000  1  -360  360;
127  128  0.000052413  0.000064318  0.000000000  500  500  500  1.000  0.000  1  -360  360;
128  129  0.000025554  0.000031358  0.000000000  500  500  500  1.000  0.000  1  -360  360;
129  130  0.002312530  0.000612847  0.000000002  500  500  500  1.000  0.000  1  -360  360;
130  131  0.002452866  0.000650038  0.000000003  500  500  500  1.000  0.000  1  -360  360;
131  132  0.000592494  0.000157018  0.000000001  500  500  500  1.000  0.000  1  -360  360;
132  133  0.000339840  0.000090062  0.000000000  500  500  500  1.000  0.000  1  -360  360;
133  134  0.000952047  0.000252304  0.000000001  500  500  500  1.000  0.000  1  -360  360;
115  135  0.001053285  0.000279133  0.000000001  500  500  500  1.000  0.000  1  -360  360;
135  136  0.001134153  0.000300564  0.000000001  500  500  500  1.000  0.000  1  -360  360;
104  137  0.000324011  0.000085867  0.000000000  500  500  500  1.000  0.000  1  -360  360;
127  138  0.000117565  0.000031156  0.000000000  500  500  500  1.000  0.000  1  -360  360;
106  139  0.000136989  0.000036304  0.000000000  500  500  500  1.000  0.000  1  -360  360;
139  140  0.000105937  0.000028075  0.000000000  500  500  500  1.000  0.000  1  -360  360;
140  141  0.000109393  0.000028990  0.000000000  500  500  500  1.000  0.000  1  -360  360;
128  142  0.001065207  0.000282292  0.000000001  500  500  500  1.000  0.000  1  -360  360;
107  143  0.000168274  0.000044595  0.000000000  500  500  500  1.000  0.000  1  -360  360;
129  144  0.000599852  0.000354158  0.000000002  500  500  500  1.000  0.000  1  -360  360;
144  145  0.000313023  0.000184812  0.000000001  500  500  500  1.000  0.000  1  -360  360;
145  146  0.000991358  0.000262721  0.000000001  500  500  500  1.000  0.000  1  -360  360;
146  147  0.000327125  0.000193138  0.000000001  500  500  500  1.000  0.000  1  -360  360;
147  148  0.000533565  0.000141401  0.000000001  500  500  500  1.000  0.000  1  -360  360;
108  149  0.000244442  0.000104473  0.000000000  500  500  500  1.000  0.000  1  -360  360;
108  150  0.005117585  0.001356220  0.000000005  500  500  500  1.000  0.000  1  -360  360;
150  151  0.001234132  0.000327059  0.000000001  500  500  500  1.000  0.000  1  -360  360;
144  152  0.000390488  0.000103484  0.000000000  500  500  500  1.000  0.000  1  -360  360;
145  153  0.001756276  0.000465434  0.000000002  500  500  500  1.000  0.000  1  -360  360;
153  154  0.001060084  0.000280935  0.000000001  500  500  500  1.000  0.000  1  -360  360;
154  155  0.002104210  0.000557640  0.000000002  500  500  500  1.000  0.000  1  -360  360;
150  156  0.003083519  0.000817169  0.000000003  500  500  500  1.000  0.000  1  -360  360;
156  157  0.005141220  0.001362483  0.000000005  500  500  500  1.000  0.000  1  -360  360;
157  158  0.000707956  0.000187617  0.000000001  500  500  500  1.000  0.000  1  -360  360;
153  159  0.002303685  0.000610504  0.000000002  500  500  500  1.000  0.000  1  -360  360;
132  160  0.001284162  0.000340318  0.000000001  500  500  500  1.000  0.000  1  -360  360;
160  161  0.003028266  0.000802526  0.000000003  500  500  500  1.000  0.000  1  -360  360;
147  162  0.000780659  0.000460908  0.000000002  500  500  500  1.000  0.000  1  -360  360;
162  163  0.001015273  0.000599426  0.000000003  500  500  500  1.000  0.000  1  -360  360;
163  164  0.000792695  0.000210073  0.000000001  500  500  500  1.000  0.000  1  -360  360;
122  165  0.000320112  0.000084833  0.000000000  500  500  500  1.000  0.000  1  -360  360;
165  166  0.000999889  0.000264982  0.000000001  500  500  500  1.000  0.000  1  -360  360;
166  167  0.000134966  0.000035768  0.000000000  500  500  500  1.000  0.000  1  -360  360;
133  168  0.001074916  0.000284865  0.000000001  500  500  500  1.000  0.000  1  -360  360;
168  169  0.000076199  0.000020194  0.000000000  500  500  500  1.000  0.000  1  -360  360;
169  170  0.000601841  0.000159495  0.000000001  500  500  500  1.000  0.000  1  -360  360;
170  171  0.000394187  0.000104464  0.000000000  500  500  500  1.000  0.000  1  -360  360;
165  172  0.000271897  0.000072056  0.000000000  500  500  500  1.000  0.000  1  -360  360;
156  173  0.001749425  0.000463618  0.000000002  500  500  500  1.000  0.000  1  -360  360;
173  174  0.001410261  0.000373736  0.000000001  500  500  500  1.000  0.000  1  -360  360;
174  175  0.021225157  0.001515316  0.000000000  500  500  500  1.000  0.000  1  -360  360;
175  176  0.012747827  0.000910099  0.000000000  500  500  500  1.000  0.000  1  -360  360;
176  177  0.004586738  0.000327458  0.000000000  500  500  500  1.000  0.000  1  -360  360;
168  178  0.000874767  0.000231824  0.000000001  500  500  500  1.000  0.000  1  -360  360;
174  179  0.002797162  0.000741281  0.000000003  500  500  500  1.000  0.000  1  -360  360;
179  180  0.002920811  0.000774049  0.000000003  500  500  500  1.000  0.000  1  -360  360;
180  181  0.002229687  0.000590893  0.000000002  500  500  500  1.000  0.000  1  -360  360;
170  182  0.000985293  0.000261114  0.000000001  500  500  500  1.000  0.000  1  -360  360;
170  183  0.002257766  0.000598334  0.000000002  500  500  500  1.000  0.000  1  -360  360;
183  184  0.000948920  0.000251475  0.000000001  500  500  500  1.000  0.000  1  -360  360;
184  185  0.002683623  0.000711191  0.000000003  500  500  500  1.000  0.000  1  -360  360;
185  186  0.001643048  0.000435427  0.000000002  500  500  500  1.000  0.000  1  -360  360;
186  187  0.001525748  0.000404341  0.000000002  500  500  500  1.000  0.000  1  -360  360;
187  188  0.000844799  0.000223882  0.000000001  500  500  500  1.000  0.000  1  -360  360;
188  189  0.000962940  0.000255190  0.000000001  500  500  500  1.000  0.000  1  -360  360;
189  190  0.002461079  0.000652215  0.000000003  500  500  500  1.000  0.000  1  -360  360;
190  191  0.000650741  0.000172454  0.000000001  500  500  500  1.000  0.000  1  -360  360;
191  192  0.001167176  0.000309315  0.000000001  500  500  500  1.000  0.000  1  -360  360;
192  193  0.000733681  0.000194434  0.000000001  500  500  500  1.000  0.000  1  -360  360;
193  194  0.001374513  0.000364262  0.000000001  500  500  500  1.000  0.000  1  -360  360;
194  195  0.002114116  0.000560265  0.000000002  500  500  500  1.000  0.000  1  -360  360;
163  196  0.000971350  0.000573494  0.000000003  500  500  500  1.000  0.000  1  -360  360;
196  197  0.002404360  0.000637183  0.000000003  500  500  500  1.000  0.000  1  -360  360;
197  198  0.001268094  0.000336060  0.000000001  500  500  500  1.000  0.000  1  -360  360;
198  199  0.002339110  0.000619891  0.000000002  500  500  500  1.000  0.000  1  -360  360;
199  200  0.001974370  0.000523231  0.000000002  500  500  500  1.000  0.000  1  -360  360;
200  201  0.000847925  0.000224710  0.000000001  500  500  500  1.000  0.000  1  -360  360;
201  202  0.002379767  0.000630666  0.000000003  500  500  500  1.000  0.000  1  -360  360;
175  203  0.006775600  0.000483727  0.000000000  500  500  500  1.000  0.000  1  -360  360;
125  204  0.001349399  0.000357607  0.000000001  500  500  500  1.000  0.000  1  -360  360;
...

%% generator cost data
mpc.gencost = [2  0  0  2  14  0];